* gnetlist -g spice-sdb -o howland.net spice-cmd.sch howland.sch
*********************************************************
* Spice file generated by gnetlist                      *
* spice-sdb version 4.28.2007 by SDB --                 *
* provides advanced spice netlisting capability.        *
* Documentation at http://www.brorson.com/gEDA/SPICE/   *
*********************************************************
*vvvvvvvv  Included SPICE model from models/OPA602E.MOD vvvvvvvv
* OPA602E OPERATIONAL AMPLIFIER "MACROMODEL" SUBCIRCUIT

* "E" IS ENHANCED MODEL

* CREATED USING PARTS RELEASE 4.03 ON 10/11/90 AT 10:13

*

* REV.B 3/21/92 BCB:  added input bias current correction and 

*                     current and voltage noise

*

*  ------------------------------------------------------------------------ 

* |  NOTICE: THE INFORMATION PROVIDED HEREIN IS BELIEVED TO BE RELIABLE;   |

* |  HOWEVER; BURR-BROWN ASSUMES NO RESPONSIBILITY FOR INACCURACIES OR     |

* |  OMISSIONS.  BURR-BROWN ASSUMES NO RESPONSIBILITY FOR THE USE OF THIS  |

* |  INFORMATION, AND ALL USE OF SUCH INFORMATION SHALL BE ENTIRELY AT     |

* |  THE USER'S OWN RISK.  NO PATENT RIGHTS OR LICENSES TO ANY OF THE      |

* |  CIRCUITS DESCRIBED HEREIN ARE IMPLIED OR GRANTED TO ANY THIRD PARTY.  |

* |  BURR-BROWN DOES NOT AUTHORIZE OR WARRANT ANY BURR-BROWN PRODUCT FOR   |

* |  USE IN LIFE-SUPPORT DEVICES AND/OR SYSTEMS.                           |

*  ------------------------------------------------------------------------ 

*

* CONNECTIONS:   NON-INVERTING INPUT

*                | INVERTING INPUT

*                | | POSITIVE POWER SUPPLY

*                | | | NEGATIVE POWER SUPPLY

*                | | | | OUTPUT

*                | | | | |

.SUBCKT OPA602E  1 2 3 4 5

*

C1   11 12 6.850E-12

C2    6  7 13.70E-12

DC    5 53 DX

DE   54  5 DX

DLP  90 91 DX

DLN  92 90 DX

DP    4  3 DX

EGND 99  0 POLY(2) (3,0) (4,0) 0 .5 .5

FB    7 99 POLY(5) VB VC VE VLP VLN 0 2.213E6 -2E6 2E6 2E6 -2E6

GA    6  0 11 12 602.6E-6

GCM   0  6 10 99 6.026E-9

ISS   3 10 DC 479.5E-6

HLIM 90  0 VLIM 1K

J1   11  2 10 JX

J2   12  64 10 JX

G11 2 4 POLY(4) (10,2) (11,2) (4,2) (66,0) 0 1E-12 1E-12 1E-12 600E-9

G21 1 4 POLY(4) (10,1) (12,1) (4,1) (68,0) 0 1E-12 1E-12 1E-12 600E-9

R2    6  9 100.0E3

RD1   4 11 1.660E3

RD2   4 12 1.660E3

RO1   8  5 25

RO2   7 99 75

*  RP    3  4 10.00E3

RSS  10 99 417.1E3

VB    9  0 DC 0

VC    3 53 DC 2.100

VE   54  4 DC 1.200

VLIM  7  8 DC 0

VLP  91  0 DC 50

VLN   0 92 DC 50

****************************

* OPA602 "E" - ENHANCEMENTS

****************************

* OUTPUT SUPPLY MIRROR

FQ3   0 20 POLY(1) VLIM 0  1

DQ1  20 21 DX

DQ2  22 20 DX

VQ1  21  0 0

VQ2  22  0 0

FQ1   3  0 POLY(1) VQ1  2.221E-3  1

FQ2   0  4 POLY(1) VQ2  2.221E-3 -1

* QUIESCIENT CURRENT

RQ    3  4  1.0E5

* DIFF INPUT CAPACITANCE

CDIF  1  2  1.0E-12

* COMMON MODE INPUT CAPACITANCE

C1CM  1  99 1.5E-12

C2CM  2  99 1.5E-12

* INPUT VOLTAGE NOISE

VN1 61 0  0.6

VN2 0  62 0.6

DN1 61 63 DY

DN2 63 62 DY

EN 64 1  63 0 1

* INPUT CURRENT NOISE

RN1 0 65 60.3865

RN2 65 66 60.3865

RN3 66 0 120.773

RN4 0 67 60.3865

RN5 67 68 60.3865

RN6 68 0 120.773

******************

.MODEL DY D(IS=1.7424E-16 AF=1 KF=24.597E-18)

.MODEL DX D(IS=800.0E-18)

.MODEL JX PJF(IS=500.0E-15 BETA=3.785E-4 VTO=-1)

.ENDS

*^^^^^^^^  End of included SPICE model from models/OPA602E.MOD ^^^^^^^^
*
*vvvvvvvv  Included SPICE model from models/OPA130.MOD vvvvvvvv
* OPA130 operational amplifier "macromodel" subcircuit

* created using Parts release 6.2i on 04/03/96 at 16:48

* Parts is a MicroSim product.

* Rev. A  SB 7/20/96

*  ------------------------------------------------------------------------ 

* |  NOTICE: THE INFORMATION PROVIDED HEREIN IS BELIEVED TO BE RELIABLE;   |

* |  HOWEVER; BURR-BROWN ASSUMES NO RESPONSIBILITY FOR INACCURACIES OR     |

* |  OMISSIONS.  BURR-BROWN ASSUMES NO RESPONSIBILITY FOR THE USE OF THIS  |

* |  INFORMATION, AND ALL USE OF SUCH INFORMATION SHALL BE ENTIRELY AT     |

* |  THE USER'S OWN RISK.  NO PATENT RIGHTS OR LICENSES TO ANY OF THE      |

* |  CIRCUITS DESCRIBED HEREIN ARE IMPLIED OR GRANTED TO ANY THIRD PARTY.  |

* |  BURR-BROWN DOES NOT AUTHORIZE OR WARRANT ANY BURR-BROWN PRODUCT FOR   |

* |  USE IN LIFE-SUPPORT DEVICES AND/OR SYSTEMS.                           |

*  ------------------------------------------------------------------------ 

*

*

* connections:   non-inverting input

*                | inverting input

*                | | positive power supply

*                | | | negative power supply

*                | | | | output

*                | | | | |

.SUBCKT OPA130   1 2 3 4 5

*

C1   11 12 4.330E-12

C2    6  7 15.00E-12

CSS  10 99 1.000E-30

DC    5 53 DX

DE   54  5 DX

DLP  90 91 DX

DLN  92 90 DX

DP    4  3 DX

EGND 99  0 POLY(2) (3,0) (4,0) 0 .5 .5

FB    7 99 POLY(5) VB VC VE VLP VLN 0 2.386E9 -2E9 2E9 2E9 -2E9

GA    6  0 11 12 94.25E-6

GCM   0  6 10 99 530.1E-12

ISS   3 10 DC 30.00E-6

HLIM 90  0 VLIM 1E3

J1   11  2 10 JX

J2   12  1 10 JX

R2    6  9 100.0E3

RD1   4 11 10.61E3

RD2   4 12 10.61E3

RO1   8  5 50

RO2   7 99 25

RP    3  4 56.25E3

RSS  10 99 6.667E6

VB    9  0 DC 0

VC    3 53 DC 1.500

VE   54  4 DC 1

VLIM  7  8 DC 0

VLP  91  0 DC 18

VLN   0 92 DC 18

.MODEL DX D(IS=800.0E-18)

.MODEL JX PJF(IS=2.500E-12 BETA=296.1E-6 VTO=-1)

.ENDS
*^^^^^^^^  End of included SPICE model from models/OPA130.MOD ^^^^^^^^
*
*vvvvvvvv  Included SPICE model from models/LMH6645.MOD vvvvvvvv
*//////////////////////////////////////////////////////////////////////
* (C) National Semiconductor, Corporation.
* Models developed and under copyright by:
* National Semiconductor, Corporation.  
*/////////////////////////////////////////////////////////////////////
* Legal Notice:  
* The model may be copied, and distributed without any modifications;
* however, reselling or licensing the material is illegal.
* We reserve the right to make changes to the model without prior notice. 
* Pspice Models are provided "AS IS, WITH NO WARRANTY OF ANY KIND" 
*////////////////////////////////////////////////////////////////////
*BEGIN MODEL LMH6645
*PINOUT ORDER  -IN +IN V+ V- OUT
*PINOUT ORDER    4  3   5  2  1
.SUBCKT LMH6645 4 3 5 2 1
Q1 6 7 8 QIN
Q2 9 10 11 QIN
Q3 12 13 14 QN
Q4 13 13 14 QN
Q5 15 10 16 QIP
Q6 17 18 19 QIP
Q7 20 21 22 QP
Q12 23 24 25 QP
Q13 26 26 22 QP
Q14 27 27 26 QP
Q15 25 28 22 QP
Q16 13 29 20 QP
Q17 1 25 30 QOP
Q18 31 31 32 QN
Q19 32 32 33 QN
Q20 23 34 14 QN
Q21 1 23 35 QON
Q22 25 31 23 QN
R1 12 8 125
R2 12 11 125
R3 19 20 125
R4 16 20 125
R5 36 37 200
R7 6 22 300
R8 14 15 300
R9 14 17 300
R10 34 35 100
R11 28 30 100
R12 30 5 11.2
R13 2 35 12
V3 22 29 1.4
I1 21 22 4E-6
I4 24 14 0.85E-3
I5 22 31 0.85E-3
I6 22 25 2E-3
I7 23 14 2E-3
G1 23 14 38 39 -0.4E-3
R15 41 10 200
R16 38 42 50
C2 42 1 10E-12
R17 24 27 11.2
R18 14 33 12
Q24 43 43 7 QP
Q25 10 10 43 QP
Q26 7 7 44 QN
Q27 44 44 10 QN
D1 7 22 D1
D2 10 22 D1
D3 14 18 D1
D4 14 10 D1
D5 1 5 D1
D6 2 1 D1
V5 7 18 -0.35E-3
V6 37 18 -0.1E-3
D7 45 0 DIN
D8 46 0 DIN
I8 0 45 0.1E-3
I9 0 46 0.1E-3
E2 14 0 2 0 1
E3 22 0 5 0 1
C4 36 0 2E-12
C5 4 0 2E-12
D9 47 0 DVN
D10 48 0 DVN
I10 0 47 0.1E-3
I11 0 48 0.1E-3
E4 41 4 47 48 7.8
G2 36 41 45 46 2.8E-4
I12 2 5 0.115E-3
R22 2 5 97.3E3
E5 49 0 22 0 1
E6 50 0 14 0 1
E7 51 0 52 0 1
R30 49 53 1E6
R31 50 54 1E6
R32 51 55 1E6
R33 0 53 100
R34 0 54 100
R35 0 55 10E3
E10 56 3 55 0 8E-4
R36 41 52 1E9
R37 52 36 1E9
C6 49 53 1E-12
C7 50 54 3E-12
C8 51 55 3E-12
R6 9 22 300
E11 57 56 54 0 0.15
E12 36 57 53 0 0.05
G3 38 39 9 6 2E-3
G4 38 39 15 17 2E-3
R40 38 39 1E6
E14 39 14 22 14 0.5
D11 38 22 D1
D12 14 38 D1
C9 9 6 3E-12
C10 15 17 3E-12
.MODEL D1 D
.MODEL QN NPN
.MODEL QP PNP
.MODEL QON NPN VAF=40 RC=2 RE=3 IKF=0.1
.MODEL QOP PNP VAF=40 RC=2 RE=3 IKF=0.1
.MODEL QIN NPN KF=1.25E-15 BF=333
.MODEL QIP PNP KF=1.25E-15 BF=333
.MODEL DVN D KF=1.85E-16
.MODEL DIN D KF=8E-17
.ENDS
*END MODEL LMH6645

*^^^^^^^^  End of included SPICE model from models/LMH6645.MOD ^^^^^^^^
*
*vvvvvvvv  Included SPICE model from models/LMH6642.MOD vvvvvvvv
* LMH6642 SPICE MODEL rev 10-MAY-05
*//////////////////////////////////////////////////////////////////////
* (C) National Semiconductor, Corporation.
* Models developed and under copyright by:
* National Semiconductor, Corporation.  
*/////////////////////////////////////////////////////////////////////
* Legal Notice:  
* The model may be copied, and distributed without any modifications;
* however, reselling or licensing the material is illegal.
* We reserve the right to make changes to the model without prior notice. 
* Pspice Models are provided "AS IS, WITH NO WARRANTY OF ANY KIND" 
*////////////////////////////////////////////////////////////////////
* PINOUT ORDER -IN +IN VCC VEE OUT
* PINOUT ORDER  2   3   7   4   6
.SUBCKT LMH6642 2 3 7 4 6
C4 30 94 7E-20
R50 94 14 700E3
C10 20 96 0.35E-15
R52 96 0 20E3
CC2 14 30 0.0085E-12
E1 39 63 14 62 16
C8 45 0 1E-12
C9 2 0 1E-12
RC1 42 0 1E12
I1 7 46 175E-6
I2 5 4 50E-6
D2 18 0 DVM
I3 7 12 50E-6
C1 13 92 8E-12
D7 23 0 DVM
R1 14 13 100
I4 0 18 1.068E-4
R2 7 15 1
R3 4 16 1
R4 17 98 100
R5 19 97 100
R6 46 8 1
R7 7 21 500
R8 7 22 500
R9 24 80 500
R10 25 80 500
I8 0 23 1.068E-4
I5 26 7 20E-6
I6 80 27 20E-6
I7 28 29 13E-6
E3 3 45 23 18 7.8
D8 37 0 DIM
Q1 30 27 24 Q2M
Q2 14 27 25 Q2M
Q3 34 9 80 Q1M
Q4 9 9 80 Q1M
Q5 92 34 16 Q5M
Q8 34 17 4 Q1M
D9 40 0 DIM
I9 0 37 1.068E-4
Q26 12 12 31 Q1M
Q27 7 12 34 Q1M
Q28 92 8 15 Q28M
Q29 20 19 7 Q29M
Q30 5 5 32 Q29M
Q31 34 5 46 Q29M
Q32 30 26 21 Q33M
Q33 14 26 22 Q33M
Q34 33 28 29 Q29M
Q35 84 35 36 Q35M
Q36 83 2 38 Q35M
R11 33 36 135
R12 33 38 135
Q37 32 32 7 Q29M
Q38 31 31 4 Q1M
R13 20 41 100E3
M1 9 20 46 46 WPM
I10 0 40 1.068E-4
E2 41 39 42 43 1
V3 7 42 2
R14 7 43 10E6
R15 43 80 10E6
D1 46 44 D1M
V4 44 20 0.75
V6 35 45 1E-3
IQA 7 4 -1.00E-3
G3 2 45 40 37 2.3E-4
D3 35 7 D3M
D4 2 7 D3M
D5 64 35 D3M
D6 64 2 D3M
V7 7 29 0.2
G1 0 48 7 0 1
R17 49 48 1
L2 0 49 10E-6
R20 0 49 10
G2 22 21 48 0 7.8E-7
G9 0 57 4 0 1
R21 74 57 1
L5 0 74 12E-6
R22 0 74 120
G10 21 22 57 0 -7.8E-7
R34 81 82 1
L6 82 0 20E-6
R35 82 0 100
G11 21 22 81 0 2.6E-8
G12 0 81 33 0 1
R48 92 6 3
E5 97 7 7 15 -6.7
E6 98 4 16 4 4.85
VCM1 4 80 1.5
VCM2 84 25 0.55
VCM3 83 24 0.55
RN1 62 0 1E12
RN2 63 0 1E12
VF1 62 43 0.99
VF2 7 63 1.2
VCM4 64 4 -0.7
.MODEL Q1M NPN
.MODEL Q2M NPN (VAF=150)
.MODEL Q5M NPN (BF=1000 VAF=125)
.MODEL Q28M PNP (BF=165 VAF=100)
.MODEL Q29M PNP
.MODEL Q33M PNP (VAF=150)
.MODEL Q35M PNP (BF=406 KF=3E-17)
.MODEL WPM PMOS (KP=1E-3 VTO=-0.6)
.MODEL DVM D (IS=1E-16 KF=2.7E-15)
.MODEL DIM D (IS=1E-16 KF=4.5E-15)
.MODEL D1M D (IS=7E-14 M=0.45 N=2 TT=6E-09)
.MODEL D3M D (IS=3E-14)
.ENDS
* END LMH6642 MODEL
*^^^^^^^^  End of included SPICE model from models/LMH6642.MOD ^^^^^^^^
*
*vvvvvvvv  Included SPICE model from models/LF356.MOD vvvvvvvv
*//////////////////////////////////////////////////////////////////////
* (C) National Semiconductor, Inc.
* Models developed and under copyright by:
* National Semiconductor, Inc.  

*/////////////////////////////////////////////////////////////////////
* Legal Notice: This material is intended for free software support.
* The file may be copied, and distributed; however, reselling the 
*  material is illegal

*////////////////////////////////////////////////////////////////////
* For ordering or technical information on these models, contact:
* National Semiconductors Customer Response Center
*                 7:00 A.M.--7:00 P.M.  U.S. Central Time
*                                (800) 272-9959
* For Applications support, contact the Internet address:
*  amps-apps@galaxy.nsc.com
* ///////////////////////////////////////////////////////////////////
* User Notes:
*
* 1. Input resistance (Rin) for these JFET op amps is 1TOhm.  Rin is
*    modeled by assuming the option GMIN=1TOhm.  If a different (non-
*    default) GMIN value is needed, users may recalculate as follows:
*    Rin=(R1||GMIN+R2||GMIN), where R1=R2,
*    to maintain a consistent Rin model.

*//////////////////////////////////////////////////////////
*LF356 Monolithic JFET-Input OP-AMP MACRO-MODEL
*//////////////////////////////////////////////////////////
*
* connections:    non-inverting input
*                 |   inverting input
*                 |   |   positive power supply
*                 |   |   |   negative power supply
*                 |   |   |   |   output
*                 |   |   |   |   |
*                 |   |   |   |   |
.SUBCKT LF356/NS  1   2  99  50  28
*
*Features:
*Low input bias current =             30pA
*Low input offset current =            3pA
*High input impedance =              1Tohm
*Low input offset voltage =            1mV
*
****************INPUT STAGE************** 
*
IOS 2 1 3P
*^Input offset current
R1 1 3 1E12
R2 3 2 1E12
I1 99 4 100U
J1 5 2 4 JX
J2 6 7 4 JX
R3 5 50 20K
R4 6 50 20K
*Fp2=20 MHz
C4 5 6 1.9894E-13
*
***********COMMON MODE EFFECT***********
*
I2 99 50 4.65MA
*^Quiescent supply current
EOS 7 1 POLY(1) 16 49 3E-3 1
*Input offset voltage.^
R8 99 49 50K
R9 49 50 50K
*
*********OUTPUT VOLTAGE LIMITING********
V2 99 8 2.63
D1 9 8 DX
D2 10 9 DX
V3 10 50 2.63
*
**************SECOND STAGE**************
*
EH 99 98 99 49 1
F1 9 98 POLY(1) VA3 0 0 0 1.5944E7
G1 98 9 5 6 2E-3
R5 98 9 100MEG
VA3 9 11 0
*Fp1=31.96 HZ
C3 98 11 49.9798P
*
*********COMMON-MODE ZERO STAGE*********
*
G4 98 16 3 49 1E-8
L2 98 17 530.52M
R13 17 16 1K
*
**************OUTPUT STAGE**************
*
F6  99 50 VA7 1
F5  99 23 VA8 1
D5  21 23 DX
VA7 99 21 0
D6  23 99 DX
E1  99 26 99 9 1
VA8 26 27 0
R16 27 28 20
V5  28 25 -.25V
D4  25  9 DX
V4  24 28 -.25V
D3   9 24 DX
*
***************MODELS USED**************
*
.MODEL DX D(IS=1E-15)
.MODEL JX PJF(BETA=1.25E-5 VTO=-2.00 IS=30E-12)
*
.ENDS
*$
*^^^^^^^^  End of included SPICE model from models/LF356.MOD ^^^^^^^^
*
*vvvvvvvv  Included SPICE model from models/OPA1612.LIB vvvvvvvv
* OPA1612
*$
*****************************************************************************
* (C) Copyright 2011 Texas Instruments Incorporated. All rights reserved.                                            
*****************************************************************************
** This model is designed as an aid for customers of Texas Instruments.
** TI and its licensors and suppliers make no warranties, either expressed
** or implied, with respect to this model, including the warranties of 
** merchantability or fitness for a particular purpose.  The model is
** provided solely on an "as is" basis.  The entire risk as to its quality
** and performance is with the customer.
*****************************************************************************
*
* This model is subject to change without notice. Texas Instruments
* Incorporated is not responsible for updating this model.
*
*****************************************************************************
*
** Released by: Analog eLab Design Center, Texas Instruments Inc.
* Part: OPA1612
* Date: 13JUN2011
* Model Type: ALL IN ONE
* Simulator: PSPICE
* Simulator Version: 16.0.0.p001
* EVM Order Number: N/A
* EVM Users Guide: N/A
* Datasheet: SBOS450A–JULY 2009–REVISED AUGUST 2009
*
* Model Version: 1.0
*
*****************************************************************************
* 
* Updates:
*
* Version 1.0 : 
* Release to Web
*
*****************************************************************************
* COMMENTS:
*
* MODEL FEATURES INCLUDE OUTPUT SWING, OUTPUT CURRENT THROUGH
* THE SUPPLY RAILS, RAIL-TO-RAIL OUTPUT STAGE, OUTPUT CURRENT
* LIMIT, OPEN LOOP GAIN AND PHASE WITH RL AND CL EFFECTS,
* SLEW RATE WITH TEMPERATURE EFFECTS, SETTLING TIME TO 0.01 %,
* OVERLOAD RECOVERY TIME, COMMON MODE REJECTION WITH FREQUENCY
* EFFECTS, OUTPUT IMPEDANCE, POWER SUPPLY REJECTION WITH
* FREQUENCY EFFECTS, INPUT VOLTAGE NOISE WITH 1/F AND FEATURE
* AT 20 MEGAHERTZ, INPUT CURRENT NOISE WITH 1/F, INPUT BIAS
* CURRENT, INPUT IMPEDANCE, INPUT COMMON MODE RANGE, INPUT
* OFFSET VOLTAGE WITH TEMPERATURE EFFECTS, AND QUIESCENT
* CURRENT VS VOLTAGE AND TEMPERATURE. MODEL INCLUDES INPUT
* PROTECTION DIODES.
* MODEL DOES NOT INCLUDE SHUTDOWN.
* THIS MODEL IS ALSO APPLICABLE TO OPA1611.
*
* PINOUT ORDER +IN -IN +V -V OUT
* PINOUT ORDER  3   2   7  4  6
*****************************************************************************
.SUBCKT OPA1612 3 2 7 4 6
D17 9 0 DIN
D18 10 0 DIN
I14 0 9 0.1E-3
I15 0 10 0.1E-3
D19 11 0 DVN
D20 12 0 DVN
I16 0 11 0.1E-3
I17 0 12 0.1E-3
E15 13 14 11 12 4.23E-2
G5 15 13 9 10 1.1E-4
E16 16 0 17 0 1
E17 18 0 19 0 1
E18 20 0 21 0 1
R56 16 22 1E6
R57 18 23 1E6
R58 20 24 1E4
R59 0 22 10
R60 0 23 10
R61 0 24 7
E19 25 26 27 0 0.1
R62 28 21 1E3
R63 21 29 1E3
C15 16 22 1E-12
C16 18 23 1E-12
C17 20 24 1E-9
E20 30 25 23 0 -1E-3
E21 31 30 22 0 1E-3
R64 0 32 1E12
G12 15 13 33 0 1.45E-14
R136 0 33 10E3
R137 0 33 10E3
R138 26 25 1E9
R139 25 30 1E9
R140 30 31 1E9
E74 29 0 15 0 1
E75 28 0 13 0 1
C23 15 13 0.05E-12
E77 26 3 34 0 1.98E-4
R146 26 3 1E9
R147 0 32 1E12
Q41 35 36 19 QLN
R148 36 37 1E3
R149 38 39 1E3
R150 40 17 5
R151 19 41 5
R153 42 43 850
R154 44 17 5
R155 19 45 5
D22 46 7 DD
D23 4 46 DD
E58 19 0 4 0 1
E79 17 0 7 0 1
R156 4 7 1.1E9
E60 47 19 17 19 0.5
D24 48 17 DD
D25 19 49 DD
R157 50 51 100
R158 52 53 100
G14 42 47 54 47 0.1E-3
R159 47 42 5.3E6
C24 43 55 5P
C25 46 0 0.5E-12
D26 53 35 DD
D27 56 51 DD
Q42 56 39 17 QLP
R160 46 57 1
R161 58 46 1
E71 59 47 60 61 1
R162 59 54 1E4
C26 54 47 0.02P
G15 62 47 42 47 -1E-3
G16 47 63 42 47 1E-3
G17 47 64 65 19 1E-3
G18 66 47 17 67 1E-3
D28 66 62 DD
D29 63 64 DD
R163 62 66 100E6
R164 64 63 100E6
R165 66 17 1E3
R166 19 64 1E3
R167 63 47 1E6
R168 64 47 1E6
R169 47 66 1E6
R170 47 62 1E6
G19 7 4 68 0 3.5E-3
R171 47 54 1E9
R172 50 17 1E9
R173 19 52 1E9
G20 67 65 32 0 1E-3
L2 46 6 0.4E-9
R175 46 6 400
R176 67 17 1E8
R177 19 65 1E8
R178 41 53 1E8
R179 40 51 1E8
R180 0 32 1E9
E84 17 38 17 40 5
E85 37 19 41 19 3
E24 55 0 46 0 1
R219 42 55 1.8E9
I30 0 69 1E-3
D46 69 0 DD
R278 0 69 10E6
V27 69 34 0.65
R279 0 34 10E6
Q52 57 51 40 QOP
Q53 58 53 41 QON
Q54 65 65 45 QON
Q55 67 67 44 QOP
E144 17 50 17 66 1
E145 52 19 64 19 1
Q56 70 15 71 QIN
Q57 72 13 73 QIN
Q58 61 74 70 QIN
Q59 60 75 72 QIN
Q60 74 74 76 QIP
Q61 15 74 76 QIP
Q62 75 75 76 QIP
Q63 13 75 76 QIP
R280 61 77 1200
R281 60 77 1200
R282 78 71 4
R283 78 73 4
Q64 78 79 80 QTN
C108 61 81 1E-15
R284 81 55 600
I33 0 82 1E-3
D49 82 0 DD
R287 0 82 10E6
V30 82 83 1.2301
R288 0 83 10E6
E50 84 0 83 0 -1.75
R289 0 84 10E6
R290 85 84 10E6
M3 85 86 0 0 NEN L=2U W=1000U
G22 80 79 85 0 12E-6
V32 87 0 1
R291 87 86 1E6
M4 86 32 0 0 NEN L=2U W=100U
C109 61 60 4.75E-12
V34 77 76 1
E51 42 49 47 19 0.7
E52 48 42 17 47 0.7
G23 7 0 57 46 1
G24 4 0 46 58 -1
V35 17 8 1
M45 88 89 90 90 NEN L=3U W=3000U
R293 90 91 1E4
R294 88 17 1E6
V36 17 90 1
C110 17 8 1E-12
E53 32 0 92 90 1
V37 88 92 1.111E-6
R295 90 92 1E12
R296 8 17 1E6
C111 91 90 3E-15
C112 17 88 3E-15
M50 93 94 90 90 NEN L=3U W=300U
M51 89 93 90 90 NEN L=3U W=300U
R297 93 17 1E4
R298 89 17 1E4
C113 17 93 55E-12
C114 17 89 150E-12
E54 95 42 32 0 30
E55 96 47 32 0 -30
V38 97 96 15
V39 98 95 -15
R300 95 0 1E12
R301 96 0 1E12
M52 47 98 42 99 PSW L=1.5U W=150U
M53 42 97 47 100 NSW L=1.5U W=150U
R302 99 0 1E12
R303 100 0 1E12
M54 91 8 17 17 PEN L=6U W=60U
E56 101 90 91 90 -1
R304 90 101 10E6
R305 90 101 10E6
V40 94 101 1
R306 90 94 10E6
E57 102 0 24 0 1
R307 102 27 1E4
R308 0 27 7
C115 102 27 1E-9
M55 103 104 4 4 NEN L=2U W=1000U
R309 103 7 160E3
E78 104 4 32 0 3
V41 80 19 1.23
V42 17 76 0.48
R310 105 13 100
M56 68 106 0 0 NEN L=2U W=10M
R311 68 84 850E3
E70 107 0 32 0 -1
R312 0 107 10E6
R313 0 107 10E6
V43 106 107 1
R314 0 106 10E6
G25 7 4 32 0 -0.85E-3
G26 7 4 108 0 -4E-5
E61 109 0 7 4 1
M57 108 106 0 0 NEN L=2U W=10M
R315 108 109 75E3
E62 2 14 110 0 0.93
R317 0 110 1E3
C116 110 0 2.4E-12
L5 0 110 40E-6
R318 14 2 1E9
C117 0 15 6E-12
C118 13 0 6E-12
V44 31 15 -29E-6
J2 105 15 105 JC
J3 15 105 15 JC
.MODEL JC NJF IS=1E-18
.MODEL QON NPN RC=5
.MODEL QOP PNP RC=5
.MODEL DD D
.MODEL QIN NPN BF=235
.MODEL QIP PNP BF=235
.MODEL QTN NPN
.MODEL DVN D KF=2.5E-15
.MODEL DIN D KF=1E-15
.MODEL QLN NPN
.MODEL QLP PNP
.MODEL NEN NMOS KP=200U VTO=0.5 IS=1E-18
.MODEL PEN PMOS KP=200U VTO=-0.7 IS=1E-18
.MODEL PSW PMOS KP=200U VTO=-7.5 IS=1E-18
.MODEL NSW NMOS KP=200U VTO=7.5 IS=1E-18
.ENDS OPA1612
*$
*^^^^^^^^  End of included SPICE model from models/OPA1612.LIB ^^^^^^^^
*
*==============  Begin SPICE netlist of main design ============
R1000 Vinput 4 50K  
V6756 0 3 5uV
V5 0 N5V 5V
V6 P5V 0 5V
R5 1 Voutput 600  
R4 TP4 1 600  
C28 TP7 U6nIN 1uF  
XU4 0 U6nIN P15V N15V TP7 OPA602E
R1 4 TP3 500K  
XU1 4 0 P5V N5V TP3 LMH6645
R6 TP7 U5nIN 5000K  
R3 U5nIN TP4 100K  
R2 2 U5nIN 50  
XU2 3 U5nIN P15V N15V TP4 OPA1612
C27 2 TP3 1uF  
XU3 0 1 P15V N15V Voutput LF356/NS
V4 0 N15V 15V
V3 P15V 0 15V
R2000 0 Vinput 1  
Iinput 0 Vinput DC 0A AC 0A SIN(0 15uA 30KHZ)
.PRINT TRAN V(Vinput,0) V(TP3) V(TP4) V(Voutput)
.OPTIONS NOPAGE NUMDGT=7 UNITS=Degress WIDTH=109
.TRAN 50ms 10000s 0.00m UIC
.end
